<?xml version="1.0" encoding="UTF-8"?>

<!-- generated on 2025-09-21 23:19:46 by Eclipse SUMO sumo Version 1.20.0
-->

<configuration xmlns:xsi="http://www.w3.org/2001/XMLSchema-instance" xsi:noNamespaceSchemaLocation="http://sumo.dlr.de/xsd/sumoConfiguration.xsd">

    <input>
        <net-file value="vanness.net.xml"/>
        <route-files value="vanness.rou.xml"/>
        <additional-files value="vanness.add.xml"/>
    </input>

</configuration>
