<?xml version="1.0" encoding="UTF-8"?>

<!-- generated on 2025-09-21 23:19:46 by Eclipse SUMO netedit Version 1.20.0
<configuration xmlns:xsi="http://www.w3.org/2001/XMLSchema-instance" xsi:noNamespaceSchemaLocation="http://sumo.dlr.de/xsd/neteditConfiguration.xsd">

    <input>
        <sumocfg-file value="/Users/tanluliang/Desktop/Vaness sumo/vanness.sumocfg"/>
        <additional-files value="/Users/tanluliang/Desktop/Vaness sumo/vanness.add.xml"/>
        <route-files value="/Users/tanluliang/Desktop/Vaness sumo/vanness.rou.xml"/>
        <sumo-net-file value="/Users/tanluliang/Desktop/Vaness sumo/vanness.net.xml"/>
    </input>

    <output>
        <output-file value="/Users/tanluliang/Desktop/Vaness sumo/vanness.net.xml"/>
    </output>

    <processing>
        <geometry.min-radius.fix.railways value="false"/>
        <geometry.max-grade.fix value="false"/>
        <offset.disable-normalization value="true"/>
        <lefthand value="0"/>
    </processing>

    <junctions>
        <no-turnarounds value="true"/>
        <junctions.corner-detail value="5"/>
        <junctions.limit-turn-speed value="5.50"/>
        <rectangular-lane-cut value="0"/>
    </junctions>

    <pedestrian>
        <walkingareas value="0"/>
    </pedestrian>

</configuration>
-->

<net version="1.20" junctionCornerDetail="5" limitTurnSpeed="5.50" xmlns:xsi="http://www.w3.org/2001/XMLSchema-instance" xsi:noNamespaceSchemaLocation="http://sumo.dlr.de/xsd/net_file.xsd">

    <location netOffset="-550275.69,-4181293.20" convBoundary="0.00,0.00,1284.59,1029.31" origBoundary="-122.429056,37.775685,-122.414446,37.787559" projParameter="+proj=utm +zone=10 +ellps=WGS84 +datum=WGS84 +units=m +no_defs"/>

    <type id="highway.cycleway" priority="1" numLanes="1" speed="5.56" allow="bicycle" oneway="0" width="2.00"/>
    <type id="highway.footway" priority="1" numLanes="1" speed="2.78" allow="pedestrian" oneway="1" width="2.00"/>
    <type id="highway.primary" priority="12" numLanes="2" speed="27.78" disallow="tram rail_urban rail rail_electric rail_fast ship container cable_car subway aircraft wheelchair scooter drone" oneway="0"/>
    <type id="highway.residential" priority="3" numLanes="1" speed="13.89" disallow="tram rail_urban rail rail_electric rail_fast ship container cable_car subway aircraft wheelchair scooter drone" oneway="0"/>
    <type id="highway.secondary" priority="11" numLanes="1" speed="27.78" disallow="tram rail_urban rail rail_electric rail_fast ship container cable_car subway aircraft wheelchair scooter drone" oneway="0"/>
    <type id="highway.service" priority="1" numLanes="1" speed="5.56" allow="pedestrian delivery bicycle" oneway="0"/>
    <type id="highway.steps" priority="1" numLanes="1" speed="1.39" allow="pedestrian" oneway="1" width="2.00"/>
    <type id="highway.tertiary" priority="10" numLanes="1" speed="22.22" disallow="tram rail_urban rail rail_electric rail_fast ship container cable_car subway aircraft wheelchair scooter drone" oneway="0"/>
    <type id="highway.trunk" priority="13" numLanes="2" speed="27.78" disallow="pedestrian bicycle tram rail_urban rail rail_electric rail_fast ship container cable_car subway aircraft wheelchair scooter drone" oneway="0"/>
    <type id="highway.unclassified" priority="4" numLanes="1" speed="13.89" disallow="tram rail_urban rail rail_electric rail_fast ship container cable_car subway aircraft wheelchair scooter drone" oneway="0"/>

    <edge id=":10091282456_0" function="internal">
        <lane id=":10091282456_0_0" index="0" allow="pedestrian delivery bicycle" speed="5.56" length="5.01" shape="648.92,250.01 648.16,254.96"/>
    </edge>
    <edge id=":10160397440_0" function="internal">
        <lane id=":10160397440_0_0" index="0" allow="pedestrian delivery bicycle" speed="3.65" length="4.67" shape="849.11,469.52 848.13,470.57 847.27,470.84 846.55,470.32 845.95,469.00"/>
    </edge>
    <edge id=":10160397441_0" function="internal">
        <lane id=":10160397441_0_0" index="0" allow="pedestrian delivery bicycle" speed="5.04" length="5.00" shape="854.66,454.79 853.29,454.76 852.24,455.18 851.51,456.04 851.10,457.35"/>
    </edge>
    <edge id=":10160397441_1" function="internal">
        <lane id=":10160397441_1_0" index="0" allow="pedestrian delivery bicycle" speed="5.56" length="9.40" shape="854.66,454.79 845.38,453.28"/>
    </edge>
    <edge id=":10160397441_2" function="internal">
        <lane id=":10160397441_2_0" index="0" allow="pedestrian delivery bicycle" speed="5.04" length="5.00" shape="847.94,456.84 847.97,455.47 847.55,454.42 846.69,453.69 845.38,453.28"/>
    </edge>
    <edge id=":10160397441_3" function="internal">
        <lane id=":10160397441_3_0" index="0" allow="pedestrian delivery bicycle" speed="3.65" length="4.67" shape="847.94,456.84 848.92,455.78 849.78,455.52 850.50,456.04 851.10,457.35"/>
    </edge>
    <edge id=":10178163688_0" function="internal">
        <lane id=":10178163688_0_0" index="0" disallow="tram rail_urban rail rail_electric rail_fast ship container cable_car subway aircraft wheelchair scooter drone" speed="8.94" length="0.10" shape="1002.92,640.39 1002.92,640.39"/>
    </edge>
    <edge id=":10178163688_1" function="internal">
        <lane id=":10178163688_1_0" index="0" disallow="tram rail_urban rail rail_electric rail_fast ship container cable_car subway aircraft wheelchair scooter drone" speed="8.94" length="0.10" shape="1003.44,637.23 1003.44,637.23"/>
    </edge>
    <edge id=":10178189124_0" function="internal">
        <lane id=":10178189124_0_0" index="0" disallow="tram rail_urban rail rail_electric rail_fast ship container cable_car subway aircraft wheelchair scooter drone" speed="8.94" length="0.31" shape="867.88,625.50 867.83,625.80"/>
    </edge>
    <edge id=":10178189124_1" function="internal">
        <lane id=":10178189124_1_0" index="0" disallow="tram rail_urban rail rail_electric rail_fast ship container cable_car subway aircraft wheelchair scooter drone" speed="8.94" length="0.29" shape="864.68,625.27 864.72,624.99"/>
    </edge>
    <edge id=":10178189125_0" function="internal">
        <lane id=":10178189125_0_0" index="0" disallow="tram rail_urban rail rail_electric rail_fast ship container cable_car subway aircraft wheelchair scooter drone" speed="8.94" length="0.31" shape="870.85,607.74 870.80,608.04"/>
    </edge>
    <edge id=":10178189125_1" function="internal">
        <lane id=":10178189125_1_0" index="0" disallow="tram rail_urban rail rail_electric rail_fast ship container cable_car subway aircraft wheelchair scooter drone" speed="8.94" length="0.29" shape="867.65,607.49 867.70,607.21"/>
    </edge>
    <edge id=":10178189126_0" function="internal">
        <lane id=":10178189126_0_0" index="0" disallow="tram rail_urban rail rail_electric rail_fast ship container cable_car subway aircraft wheelchair scooter drone" speed="8.94" length="0.30" shape="857.91,616.22 857.62,616.17"/>
    </edge>
    <edge id=":10178189126_1" function="internal">
        <lane id=":10178189126_1_0" index="0" disallow="tram rail_urban rail rail_electric rail_fast ship container cable_car subway aircraft wheelchair scooter drone" speed="8.94" length="0.30" shape="858.14,613.02 858.44,613.07"/>
    </edge>
    <edge id=":10178189127_0" function="internal">
        <lane id=":10178189127_0_0" index="0" disallow="tram rail_urban rail rail_electric rail_fast ship container cable_car subway aircraft wheelchair scooter drone" speed="8.94" length="0.29" shape="876.12,619.26 875.83,619.21"/>
    </edge>
    <edge id=":10178189127_1" function="internal">
        <lane id=":10178189127_1_0" index="0" disallow="tram rail_urban rail rail_electric rail_fast ship container cable_car subway aircraft wheelchair scooter drone" speed="8.94" length="0.31" shape="876.35,616.06 876.65,616.11"/>
    </edge>
    <edge id=":10228507714_0" function="internal">
        <lane id=":10228507714_0_0" index="0" allow="pedestrian delivery bicycle" speed="5.09" length="5.06" shape="834.73,719.99 833.37,719.96 832.31,720.39 831.57,721.27 831.13,722.60"/>
    </edge>
    <edge id=":10228507714_1" function="internal">
        <lane id=":10228507714_1_0" index="0" disallow="tram rail_urban rail rail_electric rail_fast ship container cable_car subway aircraft wheelchair scooter drone" speed="8.94" length="9.41" shape="834.73,719.99 825.46,718.44"/>
        <lane id=":10228507714_1_1" index="1" disallow="tram rail_urban rail rail_electric rail_fast ship container cable_car subway aircraft wheelchair scooter drone" speed="8.94" length="9.41" shape="835.26,716.84 825.98,715.29"/>
        <lane id=":10228507714_1_2" index="2" disallow="tram rail_urban rail rail_electric rail_fast ship container cable_car subway aircraft wheelchair scooter drone" speed="8.94" length="9.41" shape="835.79,713.68 826.51,712.13"/>
    </edge>
    <edge id=":10228507714_4" function="internal">
        <lane id=":10228507714_4_0" index="0" allow="pedestrian delivery bicycle" speed="5.02" length="5.02" shape="827.98,722.03 828.03,720.65 827.63,719.60 826.77,718.86 825.46,718.44"/>
    </edge>
    <edge id=":10228507714_5" function="internal">
        <lane id=":10228507714_5_0" index="0" allow="pedestrian delivery bicycle" speed="3.65" length="4.67" shape="827.98,722.03 828.98,720.99 829.84,720.74 830.56,721.28 831.13,722.60"/>
    </edge>
    <edge id=":10228507715_0" function="internal">
        <lane id=":10228507715_0_0" index="0" allow="pedestrian delivery bicycle" speed="3.65" length="4.67" shape="826.47,748.23 825.47,749.26 824.61,749.51 823.90,748.98 823.33,747.65"/>
    </edge>
    <edge id=":10244974208_0" function="internal">
        <lane id=":10244974208_0_0" index="0" disallow="tram rail_urban rail rail_electric rail_fast ship container cable_car subway aircraft wheelchair scooter drone" speed="8.94" length="8.21" shape="723.58,913.96 721.19,913.81 719.52,914.09 717.85,914.37 715.45,914.23"/>
        <lane id=":10244974208_0_1" index="1" disallow="tram rail_urban rail rail_electric rail_fast ship container cable_car subway aircraft wheelchair scooter drone" speed="8.94" length="8.21" shape="724.11,910.80 721.71,910.65 720.04,910.93 718.37,911.21 715.97,911.08"/>
        <lane id=":10244974208_0_2" index="2" disallow="tram rail_urban rail rail_electric rail_fast ship container cable_car subway aircraft wheelchair scooter drone" speed="8.94" length="8.21" shape="724.64,907.65 722.24,907.50 720.56,907.77 718.89,908.06 716.48,907.92"/>
        <lane id=":10244974208_0_3" index="3" disallow="tram rail_urban rail rail_electric rail_fast ship container cable_car subway aircraft wheelchair scooter drone" speed="8.94" length="8.21" shape="724.64,907.65 722.32,907.00 720.82,906.20 719.33,905.39 716.99,904.76"/>
    </edge>
    <edge id=":10740508996_0" function="internal">
        <lane id=":10740508996_0_0" index="0" disallow="tram rail_urban rail rail_electric rail_fast ship container cable_car subway aircraft wheelchair scooter drone" speed="11.18" length="4.35" shape="583.79,575.70 583.07,580.07"/>
        <lane id=":10740508996_0_1" index="1" disallow="tram rail_urban rail rail_electric rail_fast ship container cable_car subway aircraft wheelchair scooter drone" speed="11.18" length="4.35" shape="580.62,575.20 579.92,579.53"/>
        <lane id=":10740508996_0_2" index="2" disallow="tram rail_urban rail rail_electric rail_fast ship container cable_car subway aircraft wheelchair scooter drone" speed="11.18" length="4.35" shape="577.46,574.71 576.76,579.00"/>
        <lane id=":10740508996_0_3" index="3" disallow="tram rail_urban rail rail_electric rail_fast ship container cable_car subway aircraft wheelchair scooter drone" speed="11.18" length="4.35" shape="574.30,574.21 573.60,578.47"/>
        <lane id=":10740508996_0_4" index="4" disallow="tram rail_urban rail rail_electric rail_fast ship container cable_car subway aircraft wheelchair scooter drone" speed="11.18" length="4.35" shape="571.14,573.71 570.45,577.94"/>
    </edge>
    <edge id=":10740616972_0" function="internal">
        <lane id=":10740616972_0_0" index="0" disallow="tram rail_urban rail rail_electric rail_fast ship container cable_car subway aircraft wheelchair scooter drone" speed="13.89" length="0.31" shape="475.77,234.24 475.46,234.19"/>
    </edge>
    <edge id=":10740616972_1" function="internal">
        <lane id=":10740616972_1_0" index="0" disallow="tram rail_urban rail rail_electric rail_fast ship container cable_car subway aircraft wheelchair scooter drone" speed="13.89" length="0.28" shape="476.02,231.04 476.30,231.09"/>
    </edge>
    <edge id=":10740671327_0" function="internal">
        <lane id=":10740671327_0_0" index="0" disallow="tram rail_urban rail rail_electric rail_fast ship container cable_car subway aircraft wheelchair scooter drone" speed="13.89" length="2.51" shape="590.29,571.63 587.81,571.22"/>
    </edge>
    <edge id=":10740671327_1" function="internal">
        <lane id=":10740671327_1_0" index="0" disallow="tram rail_urban rail rail_electric rail_fast ship container cable_car subway aircraft wheelchair scooter drone" speed="13.89" length="2.52" shape="588.33,568.06 590.81,568.48"/>
    </edge>
    <edge id=":10740754346_0" function="internal">
        <lane id=":10740754346_0_0" index="0" disallow="tram rail_urban rail rail_electric rail_fast ship container cable_car subway aircraft wheelchair scooter drone" speed="8.94" length="0.30" shape="842.61,823.12 842.91,823.17"/>
        <lane id=":10740754346_0_1" index="1" disallow="tram rail_urban rail rail_electric rail_fast ship container cable_car subway aircraft wheelchair scooter drone" speed="8.94" length="0.30" shape="842.09,826.27 842.39,826.32"/>
    </edge>
    <edge id=":10740773608_0" function="internal">
        <lane id=":10740773608_0_0" index="0" disallow="tram rail_urban rail rail_electric rail_fast ship container cable_car subway aircraft wheelchair scooter drone" speed="8.94" length="0.95" shape="819.09,918.22 819.26,917.28"/>
    </edge>
    <edge id=":10740773608_1" function="internal">
        <lane id=":10740773608_1_0" index="0" disallow="tram rail_urban rail rail_electric rail_fast ship container cable_car subway aircraft wheelchair scooter drone" speed="8.94" length="0.98" shape="816.10,916.74 815.93,917.71"/>
    </edge>
    <edge id=":10740780899_0" function="internal">
        <lane id=":10740780899_0_0" index="0" disallow="tram rail_urban rail rail_electric rail_fast ship container cable_car subway aircraft wheelchair scooter drone" speed="8.94" length="0.58" shape="816.15,936.09 816.24,935.52"/>
    </edge>
    <edge id=":10740780899_1" function="internal">
        <lane id=":10740780899_1_0" index="0" disallow="tram rail_urban rail rail_electric rail_fast ship container cable_car subway aircraft wheelchair scooter drone" speed="8.94" length="0.60" shape="813.09,935.00 812.99,935.59"/>
    </edge>
    <edge id=":10740790865_0" function="internal">
        <lane id=":10740790865_0_0" index="0" disallow="tram rail_urban rail rail_electric rail_fast ship container cable_car subway aircraft wheelchair scooter drone" speed="8.94" length="0.30" shape="823.82,818.38 824.12,818.43"/>
        <lane id=":10740790865_0_1" index="1" disallow="tram rail_urban rail rail_electric rail_fast ship container cable_car subway aircraft wheelchair scooter drone" speed="8.94" length="0.30" shape="823.30,821.54 823.60,821.58"/>
        <lane id=":10740790865_0_2" index="2" disallow="tram rail_urban rail rail_electric rail_fast ship container cable_car subway aircraft wheelchair scooter drone" speed="8.94" length="0.30" shape="822.78,824.69 823.07,824.74"/>
    </edge>
    <edge id=":10740834511_0" function="internal">
        <lane id=":10740834511_0_0" index="0" disallow="tram rail_urban rail rail_electric rail_fast ship container cable_car subway aircraft wheelchair scooter drone" speed="8.94" length="0.30" shape="1003.26,746.44 1002.96,746.39"/>
    </edge>
    <edge id=":10740834511_1" function="internal">
        <lane id=":10740834511_1_0" index="0" disallow="tram rail_urban rail rail_electric rail_fast ship container cable_car subway aircraft wheelchair scooter drone" speed="8.94" length="0.30" shape="1003.48,743.24 1003.78,743.29"/>
    </edge>
    <edge id=":10740886958_0" function="internal">
        <lane id=":10740886958_0_0" index="0" disallow="tram rail_urban rail rail_electric rail_fast ship container cable_car subway aircraft wheelchair scooter drone" speed="8.94" length="0.30" shape="893.79,517.67 893.49,517.62"/>
        <lane id=":10740886958_0_1" index="1" disallow="tram rail_urban rail rail_electric rail_fast ship container cable_car subway aircraft wheelchair scooter drone" speed="8.94" length="0.30" shape="894.32,514.51 894.02,514.47"/>
        <lane id=":10740886958_0_2" index="2" disallow="tram rail_urban rail rail_electric rail_fast ship container cable_car subway aircraft wheelchair scooter drone" speed="8.94" length="0.30" shape="894.85,511.36 894.55,511.31"/>
    </edge>
    <edge id=":10741050608_0" function="internal">
        <lane id=":10741050608_0_0" index="0" disallow="tram rail_urban rail rail_electric rail_fast ship container cable_car subway aircraft wheelchair scooter drone" speed="8.94" length="0.10" shape="884.93,522.32 884.93,522.32"/>
    </edge>
    <edge id=":10741050608_1" function="internal">
        <lane id=":10741050608_1_0" index="0" disallow="tram rail_urban rail rail_electric rail_fast ship container cable_car subway aircraft wheelchair scooter drone" speed="8.94" length="0.10" shape="881.77,521.80 881.77,521.80"/>
    </edge>
    <edge id=":10741060937_0" function="internal">
        <lane id=":10741060937_0_0" index="0" disallow="tram rail_urban rail rail_electric rail_fast ship container cable_car subway aircraft wheelchair scooter drone" speed="8.94" length="0.30" shape="1037.86,430.62 1038.15,430.67"/>
        <lane id=":10741060937_0_1" index="1" disallow="tram rail_urban rail rail_electric rail_fast ship container cable_car subway aircraft wheelchair scooter drone" speed="8.94" length="0.30" shape="1037.33,433.77 1037.62,433.82"/>
    </edge>
    <edge id=":10741198512_0" function="internal">
        <lane id=":10741198512_0_0" index="0" disallow="tram rail_urban rail rail_electric rail_fast ship container cable_car subway aircraft wheelchair scooter drone" speed="8.94" length="0.31" shape="850.48,729.10 850.43,729.41"/>
    </edge>
    <edge id=":10741198512_1" function="internal">
        <lane id=":10741198512_1_0" index="0" disallow="tram rail_urban rail rail_electric rail_fast ship container cable_car subway aircraft wheelchair scooter drone" speed="8.94" length="0.22" shape="847.28,728.81 847.32,728.59"/>
    </edge>
    <edge id=":10741227438_0" function="internal">
        <lane id=":10741227438_0_0" index="0" disallow="tram rail_urban rail rail_electric rail_fast ship container cable_car subway aircraft wheelchair scooter drone" speed="8.94" length="0.14" shape="853.42,711.37 853.45,711.22"/>
    </edge>
    <edge id=":10741227438_1" function="internal">
        <lane id=":10741227438_1_0" index="0" disallow="tram rail_urban rail rail_electric rail_fast ship container cable_car subway aircraft wheelchair scooter drone" speed="8.94" length="0.16" shape="850.29,710.68 850.27,710.84"/>
    </edge>
    <edge id=":11091380284_0" function="internal">
        <lane id=":11091380284_0_0" index="0" allow="pedestrian delivery bicycle" speed="5.56" length="0.10" shape="907.51,739.67 907.51,739.67"/>
    </edge>
    <edge id=":11091380284_1" function="internal">
        <lane id=":11091380284_1_0" index="0" allow="pedestrian delivery bicycle" speed="5.56" length="0.10" shape="904.35,739.13 904.35,739.13"/>
    </edge>
    <edge id=":11144408793_0" function="internal">
        <lane id=":11144408793_0_0" index="0" allow="pedestrian delivery bicycle" speed="3.65" length="4.67" shape="697.55,385.31 696.55,386.36 695.70,386.62 694.98,386.08 694.39,384.77"/>
    </edge>
    <edge id=":11225519492_0" function="internal">
        <lane id=":11225519492_0_0" index="0" allow="pedestrian delivery bicycle" speed="5.06" length="5.03" shape="855.25,983.06 855.23,984.44 855.65,985.50 856.51,986.24 857.82,986.65"/>
    </edge>
    <edge id=":11225519492_1" function="internal">
        <lane id=":11225519492_1_0" index="0" allow="pedestrian delivery bicycle" speed="3.65" length="4.67" shape="855.25,983.06 854.27,984.12 853.42,984.39 852.69,983.88 852.08,982.57"/>
    </edge>
    <edge id=":11225519492_2" function="internal">
        <lane id=":11225519492_2_0" index="0" allow="pedestrian delivery bicycle" speed="5.03" length="5.01" shape="848.54,985.15 849.91,985.17 850.96,984.75 851.68,983.88 852.08,982.57"/>
    </edge>
    <edge id=":11225519492_3" function="internal">
        <lane id=":11225519492_3_0" index="0" allow="pedestrian delivery bicycle" speed="5.56" length="9.40" shape="848.54,985.15 857.82,986.65"/>
    </edge>
    <edge id=":11225519494_0" function="internal">
        <lane id=":11225519494_0_0" index="0" allow="pedestrian delivery bicycle" speed="3.65" length="4.67" shape="844.85,971.33 843.79,970.35 843.52,969.50 844.04,968.77 845.35,968.17"/>
    </edge>
    <edge id=":11555277702_0" function="internal">
        <lane id=":11555277702_0_0" index="0" allow="pedestrian delivery bicycle" speed="3.65" length="4.67" shape="810.18,563.08 809.13,562.09 808.87,561.23 809.40,560.51 810.72,559.92"/>
    </edge>
    <edge id=":11555277703_0" function="internal">
        <lane id=":11555277703_0_0" index="0" disallow="tram rail_urban rail rail_electric rail_fast ship container cable_car subway aircraft wheelchair scooter drone" speed="8.94" length="9.41" shape="877.12,569.95 875.59,579.23"/>
    </edge>
    <edge id=":11555277703_1" function="internal">
        <lane id=":11555277703_1_0" index="0" allow="pedestrian delivery bicycle" speed="6.86" length="3.27" shape="877.12,569.95 876.28,572.61 875.97,572.98"/>
    </edge>
    <edge id=":11555277703_7" function="internal">
        <lane id=":11555277703_7_0" index="0" allow="pedestrian delivery bicycle" speed="6.86" length="6.89" shape="875.97,572.98 874.80,574.36 872.66,575.20 869.88,575.14"/>
    </edge>
    <edge id=":11555277703_2" function="internal">
        <lane id=":11555277703_2_0" index="0" allow="pedestrian delivery bicycle" speed="5.04" length="5.00" shape="870.40,571.99 871.77,572.01 872.82,571.60 873.55,570.74 873.96,569.43"/>
    </edge>
    <edge id=":11555277703_3" function="internal">
        <lane id=":11555277703_3_0" index="0" allow="pedestrian delivery bicycle" speed="6.86" length="10.17" shape="870.40,571.99 873.06,572.82 874.81,574.31 875.65,576.45 875.59,579.23"/>
    </edge>
    <edge id=":11555277703_4" function="internal">
        <lane id=":11555277703_4_0" index="0" allow="pedestrian delivery bicycle" speed="3.65" length="4.67" shape="870.40,571.99 871.45,572.97 871.72,573.82 871.19,574.55 869.88,575.14"/>
    </edge>
    <edge id=":11555277703_5" function="internal">
        <lane id=":11555277703_5_0" index="0" allow="pedestrian delivery bicycle" speed="5.04" length="5.00" shape="872.43,578.71 872.46,577.34 872.05,576.29 871.19,575.55 869.88,575.14"/>
    </edge>
    <edge id=":11555277703_6" function="internal">
        <lane id=":11555277703_6_0" index="0" disallow="tram rail_urban rail rail_electric rail_fast ship container cable_car subway aircraft wheelchair scooter drone" speed="8.94" length="9.40" shape="872.43,578.71 873.96,569.43"/>
    </edge>
    <edge id=":11555277704_0" function="internal">
        <lane id=":11555277704_0_0" index="0" allow="pedestrian delivery bicycle" speed="5.56" length="0.37" shape="845.78,569.23 845.68,569.19 845.60,569.16 845.53,569.14 845.42,569.12"/>
    </edge>
    <edge id=":11555277704_1" function="internal">
        <lane id=":11555277704_1_0" index="0" allow="pedestrian delivery bicycle" speed="5.56" length="1.11" shape="845.96,565.97 846.29,566.03 846.51,566.08 846.72,566.16 847.03,566.28"/>
    </edge>
    <edge id=":11555277709_0" function="internal">
        <lane id=":11555277709_0_0" index="0" allow="pedestrian delivery bicycle" speed="5.56" length="0.31" shape="862.00,573.84 861.70,573.79"/>
    </edge>
    <edge id=":11555277709_1" function="internal">
        <lane id=":11555277709_1_0" index="0" allow="pedestrian delivery bicycle" speed="5.56" length="0.27" shape="862.26,570.64 862.52,570.69"/>
    </edge>
    <edge id=":11869866315_0" function="internal">
        <lane id=":11869866315_0_0" index="0" disallow="tram rail_urban rail rail_electric rail_fast ship container cable_car subway aircraft wheelchair scooter drone" speed="8.94" length="0.27" shape="1019.83,538.99 1019.48,538.93"/>
        <lane id=":11869866315_0_1" index="1" disallow="tram rail_urban rail rail_electric rail_fast ship container cable_car subway aircraft wheelchair scooter drone" speed="8.94" length="0.27" shape="1020.30,535.82 1020.03,535.78"/>
        <lane id=":11869866315_0_2" index="2" disallow="tram rail_urban rail rail_electric rail_fast ship container cable_car subway aircraft wheelchair scooter drone" speed="8.94" length="0.27" shape="1020.76,532.65 1020.57,532.62"/>
    </edge>
    <edge id=":12004030462_0" function="internal">
        <lane id=":12004030462_0_0" index="0" allow="bicycle" speed="4.43" length="4.03" width="2.00" shape="812.75,274.17 814.11,274.29 815.13,274.12 815.80,273.66 816.12,272.91"/>
    </edge>
    <edge id=":12004030462_1" function="internal">
        <lane id=":12004030462_1_0" index="0" allow="bicycle" speed="5.56" length="6.21" width="2.00" shape="812.75,274.17 818.87,275.22"/>
    </edge>
    <edge id=":12004030462_2" function="internal">
        <lane id=":12004030462_2_0" index="0" allow="bicycle" speed="5.56" length="6.94" shape="814.87,279.74 816.12,272.91"/>
    </edge>
    <edge id=":12004030462_3" function="internal">
        <lane id=":12004030462_3_0" index="0" allow="bicycle" speed="5.56" length="6.74" width="2.00" shape="814.87,279.74 815.48,277.57 816.35,276.09 817.48,275.31 818.87,275.22"/>
    </edge>
    <edge id=":12004030463_0" function="internal">
        <lane id=":12004030463_0_0" index="0" allow="bicycle" speed="5.56" length="5.00" width="2.00" shape="790.61,270.38 795.55,271.22"/>
    </edge>
    <edge id=":12004074674_0" function="internal">
        <lane id=":12004074674_0_0" index="0" allow="bicycle" speed="5.56" length="5.12" width="2.00" shape="821.42,275.66 826.47,276.52"/>
    </edge>
    <edge id=":12004074676_0" function="internal">
        <lane id=":12004074676_0_0" index="0" disallow="tram rail_urban rail rail_electric rail_fast ship container cable_car subway aircraft wheelchair scooter drone" speed="8.94" length="0.29" shape="823.24,294.63 822.97,294.59"/>
        <lane id=":12004074676_0_1" index="1" disallow="tram rail_urban rail rail_electric rail_fast ship container cable_car subway aircraft wheelchair scooter drone" speed="8.94" length="0.29" shape="823.77,291.48 823.49,291.43"/>
        <lane id=":12004074676_0_2" index="2" disallow="tram rail_urban rail rail_electric rail_fast ship container cable_car subway aircraft wheelchair scooter drone" speed="8.94" length="0.29" shape="824.30,288.32 824.01,288.27"/>
    </edge>
    <edge id=":12004074676_3" function="internal">
        <lane id=":12004074676_3_0" index="0" disallow="tram rail_urban rail rail_electric rail_fast ship container cable_car subway aircraft wheelchair scooter drone" speed="8.94" length="0.31" shape="825.05,281.96 825.37,282.01"/>
        <lane id=":12004074676_3_1" index="1" disallow="tram rail_urban rail rail_electric rail_fast ship container cable_car subway aircraft wheelchair scooter drone" speed="8.94" length="0.31" shape="824.53,285.12 824.84,285.17"/>
    </edge>
    <edge id=":12280828986_0" function="internal">
        <lane id=":12280828986_0_0" index="0" disallow="tram rail_urban rail rail_electric rail_fast ship container cable_car subway aircraft wheelchair scooter drone" speed="8.94" length="0.30" shape="823.49,932.32 823.20,932.27"/>
        <lane id=":12280828986_0_1" index="1" disallow="tram rail_urban rail rail_electric rail_fast ship container cable_car subway aircraft wheelchair scooter drone" speed="8.94" length="0.30" shape="824.02,929.16 823.72,929.11"/>
        <lane id=":12280828986_0_2" index="2" disallow="tram rail_urban rail rail_electric rail_fast ship container cable_car subway aircraft wheelchair scooter drone" speed="8.94" length="0.30" shape="824.54,926.01 824.24,925.96"/>
        <lane id=":12280828986_0_3" index="3" disallow="tram rail_urban rail rail_electric rail_fast ship container cable_car subway aircraft wheelchair scooter drone" speed="8.94" length="0.30" shape="825.06,922.85 824.77,922.80"/>
    </edge>
    <edge id=":12280828987_0" function="internal">
        <lane id=":12280828987_0_0" index="0" disallow="tram rail_urban rail rail_electric rail_fast ship container cable_car subway aircraft wheelchair scooter drone" speed="8.94" length="0.30" shape="806.29,927.85 805.98,927.80"/>
        <lane id=":12280828987_0_1" index="1" disallow="tram rail_urban rail rail_electric rail_fast ship container cable_car subway aircraft wheelchair scooter drone" speed="8.94" length="0.30" shape="806.81,924.69 806.51,924.65"/>
        <lane id=":12280828987_0_2" index="2" disallow="tram rail_urban rail rail_electric rail_fast ship container cable_car subway aircraft wheelchair scooter drone" speed="8.94" length="0.30" shape="807.33,921.54 807.04,921.49"/>
    </edge>
    <edge id=":12280846402_0" function="internal">
        <lane id=":12280846402_0_0" index="0" disallow="tram rail_urban rail rail_electric rail_fast ship container cable_car subway aircraft wheelchair scooter drone" speed="8.94" length="4.23" shape="909.63,409.24 913.81,409.94"/>